etc/dss/FLX_DG_Caso04.dss
New PVSystem.PV3FFLX037 bus1=BUSLVFLX1209.1.2.3 kV=0.24 phases=3 kVA=1 PF=1 conn=wye irrad=1.00 Pmpp=1 temperature=25 effcurve=Myeff P-TCurve=MyPvsT Daily=PVprofile TDaily=PVtemp %cutin=0.01 %cutout=0.01 enabled=yes 
New PVSystem.PV3FFLX038 bus1=BUSLVFLX1219.1.2.3 kV=0.24 phases=3 kVA=1 PF=1 conn=wye irrad=1.00 Pmpp=1 temperature=25 effcurve=Myeff P-TCurve=MyPvsT Daily=PVprofile TDaily=PVtemp %cutin=0.01 %cutout=0.01 enabled=yes 
New PVSystem.PV3FFLX039 bus1=BUSLVFLX1232.1.2.3 kV=0.24 phases=3 kVA=1 PF=1 conn=wye irrad=1.00 Pmpp=1 temperature=25 effcurve=Myeff P-TCurve=MyPvsT Daily=PVprofile TDaily=PVtemp %cutin=0.01 %cutout=0.01 enabled=yes 
New PVSystem.PV3FFLX040 bus1=BUSLVFLX1236.1.2.3 kV=0.24 phases=3 kVA=1 PF=1 conn=wye irrad=1.00 Pmpp=1 temperature=25 effcurve=Myeff P-TCurve=MyPvsT Daily=PVprofile TDaily=PVtemp %cutin=0.01 %cutout=0.01 enabled=yes 
New PVSystem.PV3FFLX041 bus1=BUSLVFLX1240.1.2.3 kV=0.24 phases=3 kVA=1 PF=1 conn=wye irrad=1.00 Pmpp=1 temperature=25 effcurve=Myeff P-TCurve=MyPvsT Daily=PVprofile TDaily=PVtemp %cutin=0.01 %cutout=0.01 enabled=yes 
New PVSystem.PV3FFLX042 bus1=BUSLVFLX1242.1.2.3 kV=0.24 phases=3 kVA=1 PF=1 conn=wye irrad=1.00 Pmpp=1 temperature=25 effcurve=Myeff P-TCurve=MyPvsT Daily=PVprofile TDaily=PVtemp %cutin=0.01 %cutout=0.01 enabled=yes 
New PVSystem.PV3FFLX043 bus1=BUSLVFLX1246.1.2.3 kV=0.24 phases=3 kVA=1 PF=1 conn=wye irrad=1.00 Pmpp=1 temperature=25 effcurve=Myeff P-TCurve=MyPvsT Daily=PVprofile TDaily=PVtemp %cutin=0.01 %cutout=0.01 enabled=yes 
New PVSystem.PV3FFLX044 bus1=BUSLVFLX1248.1.2.3 kV=0.24 phases=3 kVA=1 PF=1 conn=wye irrad=1.00 Pmpp=1 temperature=25 effcurve=Myeff P-TCurve=MyPvsT Daily=PVprofile TDaily=PVtemp %cutin=0.01 %cutout=0.01 enabled=yes 
New PVSystem.PV3FFLX045 bus1=BUSLVFLX1253.1.2.3 kV=0.24 phases=3 kVA=1 PF=1 conn=wye irrad=1.00 Pmpp=1 temperature=25 effcurve=Myeff P-TCurve=MyPvsT Daily=PVprofile TDaily=PVtemp %cutin=0.01 %cutout=0.01 enabled=yes 
New PVSystem.PV3FFLX046 bus1=BUSLVFLX1255.1.2.3 kV=0.24 phases=3 kVA=1 PF=1 conn=wye irrad=1.00 Pmpp=1 temperature=25 effcurve=Myeff P-TCurve=MyPvsT Daily=PVprofile TDaily=PVtemp %cutin=0.01 %cutout=0.01 enabled=yes
New PVSystem.PV3FFLX047 bus1=BUSLVFLX1259.1.2.3 kV=0.24 phases=3 kVA=1 PF=1 conn=wye irrad=1.00 Pmpp=1 temperature=25 effcurve=Myeff P-TCurve=MyPvsT Daily=PVprofile TDaily=PVtemp %cutin=0.01 %cutout=0.01 enabled=yes
New PVSystem.PV3FFLX048 bus1=BUSLVFLX1262.1.2.3 kV=0.24 phases=3 kVA=1 PF=1 conn=wye irrad=1.00 Pmpp=1 temperature=25 effcurve=Myeff P-TCurve=MyPvsT Daily=PVprofile TDaily=PVtemp %cutin=0.01 %cutout=0.01 enabled=yes 
New PVSystem.PV3FFLX049 bus1=BUSLVFLX1264.1.2.3 kV=0.24 phases=3 kVA=1 PF=1 conn=wye irrad=1.00 Pmpp=1 temperature=25 effcurve=Myeff P-TCurve=MyPvsT Daily=PVprofile TDaily=PVtemp %cutin=0.01 %cutout=0.01 enabled=yes 
New PVSystem.PV3FFLX050 bus1=BUSLVFLX1270.1.2.3 kV=0.24 phases=3 kVA=1 PF=1 conn=wye irrad=1.00 Pmpp=1 temperature=25 effcurve=Myeff P-TCurve=MyPvsT Daily=PVprofile TDaily=PVtemp %cutin=0.01 %cutout=0.01 enabled=yes 
New PVSystem.PV3FFLX051 bus1=BUSLVFLX1271.1.2.3 kV=0.24 phases=3 kVA=1 PF=1 conn=wye irrad=1.00 Pmpp=1 temperature=25 effcurve=Myeff P-TCurve=MyPvsT Daily=PVprofile TDaily=PVtemp %cutin=0.01 %cutout=0.01 enabled=yes
New PVSystem.PV3FFLX052 bus1=BUSLVFLX1272.1.2.3 kV=0.24 phases=3 kVA=1 PF=1 conn=wye irrad=1.00 Pmpp=1 temperature=25 effcurve=Myeff P-TCurve=MyPvsT Daily=PVprofile TDaily=PVtemp %cutin=0.01 %cutout=0.01 enabled=yes